2ZVQ_1NP_X_501
  RCSB PDB10041307323D
Coordinates from PDB:2ZVQ:X:501 Model:1 without hydrogens
 11 12  0  0  0  0            999 V2000
   47.9610   -5.5570   12.6030   O 0  0  0  0  0  0  0  0  0  0  0  0
   48.4360   -6.5880   12.0820   C 0  0  0  0  0  0  0  0  0  0  0  0
   48.0410   -7.8560   12.5230   C 0  0  0  0  0  0  0  0  0  0  0  0
   47.1320   -7.9880   13.5760   C 0  0  0  0  0  0  0  0  0  0  0  0
   46.7470   -9.2580   14.0090   C 0  0  0  0  0  0  0  0  0  0  0  0
   49.3380   -6.4740   11.0300   C 0  0  0  0  0  0  0  0  0  0  0  0
   49.8430   -7.6180   10.4160   C 0  0  0  0  0  0  0  0  0  0  0  0
   49.4610   -8.8810   10.8600   C 0  0  0  0  0  0  0  0  0  0  0  0
   48.5530   -8.9990   11.9060   C 0  0  0  0  0  0  0  0  0  0  0  0
   48.1800  -10.2670   12.3410   C 0  0  0  0  0  0  0  0  0  0  0  0
   47.2670  -10.3990   13.3890   C 0  0  0  0  0  0  0  0  0  0  0  0
  1  2  1  0  0  0  0
  2  3  2  0  0  0  0
  2  6  1  0  0  0  0
  3  4  1  0  0  0  0
  3  9  1  0  0  0  0
  4  5  2  0  0  0  0
  5 11  1  0  0  0  0
  6  7  2  0  0  0  0
  7  8  1  0  0  0  0
  8  9  2  0  0  0  0
  9 10  1  0  0  0  0
 10 11  2  0  0  0  0
M  END
