
  -HYPER- 03181401043D

 16 17  0  0  0  0  0  0  0  0999 V2000
    5.6992   -9.2150    0.0000 C   0  0  0  0  0  0  0  0  0  0  0  0
    5.6992  -10.5450    0.0000 C   0  0  0  0  0  0  0  0  0  0  0  0
    4.5473   -8.5500    0.0000 C   0  0  0  0  0  0  0  0  0  0  0  0
    4.5473  -11.2100    0.0000 C   0  0  0  0  0  0  0  0  0  0  0  0
    3.3955   -9.2150    0.0000 C   0  0  0  0  0  0  0  0  0  0  0  0
    3.3955  -10.5450    0.0000 C   0  0  0  0  0  0  0  0  0  0  0  0
    6.9640   -8.8042    0.0000 C   0  0  0  0  0  0  0  0  0  0  0  0
    7.7456   -9.8801    0.0000 C   0  0  0  0  0  0  0  0  0  0  0  0
    6.9638  -10.9560    0.0000 N   0  0  0  0  0  0  0  0  0  0  0  0
    4.5473   -7.4700    0.0000 H   0  0  0  0  0  0  0  0  0  0  0  0
    4.5473  -12.2900    0.0000 H   0  0  0  0  0  0  0  0  0  0  0  0
    2.4602   -8.6750    0.0000 H   0  0  0  0  0  0  0  0  0  0  0  0
    2.4602  -11.0850    0.0000 H   0  0  0  0  0  0  0  0  0  0  0  0
    7.2978   -7.7771    0.0000 H   0  0  0  0  0  0  0  0  0  0  0  0
    8.8256   -9.8802    0.0000 H   0  0  0  0  0  0  0  0  0  0  0  0
    7.2758  -11.9166    0.0000 H   0  0  0  0  0  0  0  0  0  0  0  0
  1  3  2  0  0  0  0
  1  7  1  0  0  0  0
  1  2  1  0  0  0  0
  2  4  2  0  0  0  0
  2  9  1  0  0  0  0
  3  5  1  0  0  0  0
  3 10  1  0  0  0  0
  4  6  1  0  0  0  0
  4 11  1  0  0  0  0
  5  6  2  0  0  0  0
  5 12  1  0  0  0  0
  6 13  1  0  0  0  0
  7  8  2  0  0  0  0
  7 14  1  0  0  0  0
  8  9  1  0  0  0  0
  8 15  1  0  0  0  0
  9 16  1  0  0  0  0
M  END
