
  -HYPER- 03181401093D

 11 11  0  0  0  0  0  0  0  0999 V2000
    6.9667   -9.1833    0.0000 O   0  0  0  0  0  0  0  0  0  0  0  0
    7.0807  -10.3766    0.0000 N   0  0  0  0  0  0  0  0  0  0  0  0
    8.1567  -11.1584    0.0000 C   0  0  0  0  0  0  0  0  0  0  0  0
    7.7457  -12.4234    0.0000 C   0  0  0  0  0  0  0  0  0  0  0  0
    6.0047  -11.1586    0.0000 C   0  0  0  0  0  0  0  0  0  0  0  0
    6.4156  -12.4234    0.0000 C   0  0  0  0  0  0  0  0  0  0  0  0
    6.0353   -8.9508   -0.0000 H   0  0  0  0  0  0  0  0  0  0  0  0
    9.1838  -10.8247    0.0000 H   0  0  0  0  0  0  0  0  0  0  0  0
    8.3805  -13.2971    0.0000 H   0  0  0  0  0  0  0  0  0  0  0  0
    4.9775  -10.8249    0.0000 H   0  0  0  0  0  0  0  0  0  0  0  0
    5.7808  -13.2971    0.0000 H   0  0  0  0  0  0  0  0  0  0  0  0
  1  2  1  0  0  0  0
  1  7  1  0  0  0  0
  2  3  1  0  0  0  0
  2  5  1  0  0  0  0
  3  4  2  0  0  0  0
  3  8  1  0  0  0  0
  4  6  1  0  0  0  0
  4  9  1  0  0  0  0
  5  6  2  0  0  0  0
  5 10  1  0  0  0  0
  6 11  1  0  0  0  0
M  END
