
  -HYPER- 03181401103D

 15 15  0  0  0  0  0  0  0  0999 V2000
    4.8640  -12.4767    0.0000 C   0  0  0  0  0  0  0  0  0  0  0  0
    5.9778   -9.2150    0.0000 C   0  0  0  0  0  0  0  0  0  0  0  0
    5.9778  -10.5450    0.0000 C   0  0  0  0  0  0  0  0  0  0  0  0
    4.8259   -8.5500    0.0000 C   0  0  0  0  0  0  0  0  0  0  0  0
    4.8259  -11.2100    0.0000 N   0  3  0  0  0  0  0  0  0  0  0  0
    3.6742   -9.2150    0.0000 C   0  0  0  0  0  0  0  0  0  0  0  0
    3.6742  -10.5450    0.0000 C   0  0  0  0  0  0  0  0  0  0  0  0
    5.3885  -12.8244    0.8900 H   0  0  0  0  0  0  0  0  0  0  0  0
    5.3885  -12.8244   -0.8900 H   0  0  0  0  0  0  0  0  0  0  0  0
    3.8477  -12.8708    0.0000 H   0  0  0  0  0  0  0  0  0  0  0  0
    6.9131   -8.6750    0.0000 H   0  0  0  0  0  0  0  0  0  0  0  0
    6.9131  -11.0850    0.0000 H   0  0  0  0  0  0  0  0  0  0  0  0
    4.8259   -7.4700    0.0000 H   0  0  0  0  0  0  0  0  0  0  0  0
    2.7389   -8.6750    0.0000 H   0  0  0  0  0  0  0  0  0  0  0  0
    2.7389  -11.0850    0.0000 H   0  0  0  0  0  0  0  0  0  0  0  0
  1  5  1  0  0  0  0
  1  8  1  0  0  0  0
  1  9  1  0  0  0  0
  1 10  1  0  0  0  0
  2  4  2  0  0  0  0
  2  3  1  0  0  0  0
  2 11  1  0  0  0  0
  3  5  2  0  0  0  0
  3 12  1  0  0  0  0
  4  6  1  0  0  0  0
  4 13  1  0  0  0  0
  5  7  1  0  0  0  0
  6  7  2  0  0  0  0
  6 14  1  0  0  0  0
  7 15  1  0  0  0  0
M  END
