
  -HYPER- 03181400503D

 28 29  0  0  0  0  0  0  0  0999 V2000
    6.3705   -9.5697    0.0000 C   0  0  0  0  0  0  0  0  0  0  0  0
    6.3705  -10.8997    0.0000 C   0  0  0  0  0  0  0  0  0  0  0  0
    5.2186   -8.9047    0.0000 C   0  0  0  0  0  0  0  0  0  0  0  0
    5.2186  -11.5647    0.0000 C   0  0  0  0  0  0  0  0  0  0  0  0
    4.0668   -9.5697    0.0000 C   0  0  0  0  0  0  0  0  0  0  0  0
    4.0668  -10.8997    0.0000 C   0  0  0  0  0  0  0  0  0  0  0  0
    7.5223   -8.9047    0.0000 C   0  0  0  0  0  0  0  0  0  0  0  0
    8.6740   -9.5698    0.0000 C   0  0  0  0  0  0  0  0  0  0  0  0
    7.5222  -11.5646    0.0000 C   0  0  0  0  0  0  0  0  0  0  0  0
    8.6740  -10.8997    0.0000 C   0  0  0  0  0  0  0  0  0  0  0  0
    7.0499   -8.7174    0.0000 H   0  0  0  0  0  0  0  0  0  0  0  0
    6.4856  -11.9836    0.0000 H   0  0  0  0  0  0  0  0  0  0  0  0
    5.2186   -8.4597   -0.9950 H   0  0  0  0  0  0  0  0  0  0  0  0
    5.2186   -8.1780    0.8124 H   0  0  0  0  0  0  0  0  0  0  0  0
    5.2186  -12.0097    0.9950 H   0  0  0  0  0  0  0  0  0  0  0  0
    5.2186  -12.2914   -0.8124 H   0  0  0  0  0  0  0  0  0  0  0  0
    3.6814   -9.3472   -0.9950 H   0  0  0  0  0  0  0  0  0  0  0  0
    3.4375   -9.2064    0.8124 H   0  0  0  0  0  0  0  0  0  0  0  0
    3.6814  -11.1222    0.9950 H   0  0  0  0  0  0  0  0  0  0  0  0
    3.4375  -11.2630   -0.8124 H   0  0  0  0  0  0  0  0  0  0  0  0
    7.5223   -8.4596    0.9950 H   0  0  0  0  0  0  0  0  0  0  0  0
    7.5223   -8.1781   -0.8125 H   0  0  0  0  0  0  0  0  0  0  0  0
    9.0593   -9.3474    0.9951 H   0  0  0  0  0  0  0  0  0  0  0  0
    9.3034   -9.2065   -0.8124 H   0  0  0  0  0  0  0  0  0  0  0  0
    7.5222  -12.0095   -0.9951 H   0  0  0  0  0  0  0  0  0  0  0  0
    7.5222  -12.2913    0.8124 H   0  0  0  0  0  0  0  0  0  0  0  0
    9.0594  -11.1222    0.9950 H   0  0  0  0  0  0  0  0  0  0  0  0
    9.3033  -11.2630   -0.8125 H   0  0  0  0  0  0  0  0  0  0  0  0
  1  3  1  0  0  0  0
  1  7  1  0  0  0  0
  1  2  1  0  0  0  0
  1 11  1  0  0  0  0
  2  4  1  0  0  0  0
  2  9  1  0  0  0  0
  2 12  1  0  0  0  0
  3  5  1  0  0  0  0
  3 13  1  0  0  0  0
  3 14  1  0  0  0  0
  4  6  1  0  0  0  0
  4 15  1  0  0  0  0
  4 16  1  0  0  0  0
  5  6  1  0  0  0  0
  5 17  1  0  0  0  0
  5 18  1  0  0  0  0
  6 19  1  0  0  0  0
  6 20  1  0  0  0  0
  7  8  1  0  0  0  0
  7 21  1  0  0  0  0
  7 22  1  0  0  0  0
  8 10  1  0  0  0  0
  8 23  1  0  0  0  0
  8 24  1  0  0  0  0
  9 10  1  0  0  0  0
  9 25  1  0  0  0  0
  9 26  1  0  0  0  0
 10 27  1  0  0  0  0
 10 28  1  0  0  0  0
M  END
