
  -HYPER- 03181401123D

 11 10  0  0  0  0  0  0  0  0999 V2000
    3.5593   -6.9667    0.0000 C   0  0  0  0  0  0  0  0  0  0  0  0
    5.1807   -6.0547    0.0000 C   0  0  0  0  0  0  0  0  0  0  0  0
    5.9787   -7.0427    0.0000 C   0  0  0  0  0  0  0  0  0  0  0  0
    7.5240   -5.8140    0.0000 C   0  0  0  0  0  0  0  0  0  0  0  0
    8.1953   -6.9667    0.0000 C   0  0  0  0  0  0  0  0  0  0  0  0
    3.4945   -7.5927    0.8900 H   0  0  0  0  0  0  0  0  0  0  0  0
    3.4945   -7.5927   -0.8900 H   0  0  0  0  0  0  0  0  0  0  0  0
    2.7388   -6.2491    0.0000 H   0  0  0  0  0  0  0  0  0  0  0  0
    5.3841   -4.9940    0.0000 H   0  0  0  0  0  0  0  0  0  0  0  0
    5.8603   -8.1162    0.0000 H   0  0  0  0  0  0  0  0  0  0  0  0
    8.7287   -7.8827   -0.0000 H   0  0  0  0  0  0  0  0  0  0  0  0
  1  2  1  0  0  0  0
  1  6  1  0  0  0  0
  1  7  1  0  0  0  0
  1  8  1  0  0  0  0
  2  3  2  0  0  0  0
  2  9  1  0  0  0  0
  3  4  1  0  0  0  0
  3 10  1  0  0  0  0
  4  5  3  0  0  0  0
  5 11  1  0  0  0  0
M  END
