
  -HYPER- 03181401133D

 13 13  0  0  0  0  0  0  0  0999 V2000
    7.0418   -8.2270    0.0000 C   0  0  0  0  0  0  0  0  0  0  0  0
    7.0418   -9.5570    0.0000 C   0  0  0  0  0  0  0  0  0  0  0  0
    5.8899   -7.5620    0.0000 C   0  0  0  0  0  0  0  0  0  0  0  0
    5.8899  -10.2220    0.0000 C   0  0  0  0  0  0  0  0  0  0  0  0
    4.7382   -8.2270    0.0000 C   0  0  0  0  0  0  0  0  0  0  0  0
    4.7382   -9.5570    0.0000 C   0  0  0  0  0  0  0  0  0  0  0  0
    5.9027   -6.5740    0.0000 O   0  0  0  0  0  0  0  0  0  0  0  0
    7.7647   -8.1953    0.0000 Cl  0  0  0  0  0  0  0  0  0  0  0  0
    7.9771  -10.0970    0.0000 H   0  0  0  0  0  0  0  0  0  0  0  0
    5.8899  -11.3020    0.0000 H   0  0  0  0  0  0  0  0  0  0  0  0
    3.8029   -7.6870    0.0000 H   0  0  0  0  0  0  0  0  0  0  0  0
    3.8029  -10.0970    0.0000 H   0  0  0  0  0  0  0  0  0  0  0  0
    5.0018   -6.2423    0.0000 H   0  0  0  0  0  0  0  0  0  0  0  0
  1  2  1  0  0  0  0
  1  3  2  0  0  0  0
  1  8  1  0  0  0  0
  2  4  2  0  0  0  0
  2  9  1  0  0  0  0
  3  5  1  0  0  0  0
  3  7  1  0  0  0  0
  4  6  1  0  0  0  0
  4 10  1  0  0  0  0
  5  6  2  0  0  0  0
  5 11  1  0  0  0  0
  6 12  1  0  0  0  0
  7 13  1  0  0  0  0
M  END
