
  -HYPER- 02281423353D

 13 13  0  0  0  0  0  0  0  0999 V2000
   20.7104   -5.4068    0.0000 C   0  0  0  0  0  0  0  0  0  0  0  0
   20.7104   -6.7368    0.0000 C   0  0  0  0  0  0  0  0  0  0  0  0
   19.5585   -4.7418    0.0000 C   0  0  0  0  0  0  0  0  0  0  0  0
   19.5585   -7.4018    0.0000 C   0  0  0  0  0  0  0  0  0  0  0  0
   18.4068   -5.4068    0.0000 C   0  0  0  0  0  0  0  0  0  0  0  0
   18.4068   -6.7368    0.0000 C   0  0  0  0  0  0  0  0  0  0  0  0
   19.5713   -3.7538    0.0000 O   0  5  0  0  0  0  0  0  0  0  0  0
   21.3066   -6.9965    0.0000 Cl  0  0  0  0  0  0  0  0  0  0  0  0
   21.6457   -4.8668    0.0000 H   0  0  0  0  0  0  0  0  0  0  0  0
   19.5585   -8.4818    0.0000 H   0  0  0  0  0  0  0  0  0  0  0  0
   17.4715   -4.8668    0.0000 H   0  0  0  0  0  0  0  0  0  0  0  0
   17.4715   -7.2768    0.0000 H   0  0  0  0  0  0  0  0  0  0  0  0
   18.6704   -3.4221   -0.0000 H   0  0  0  0  0  0  0  0  0  0  0  0
  1  2  1  0  0  0  0
  1  3  2  0  0  0  0
  1  9  1  0  0  0  0
  2  4  2  0  0  0  0
  2  8  1  0  0  0  0
  3  5  1  0  0  0  0
  3  7  1  0  0  0  0
  4  6  1  0  0  0  0
  4 10  1  0  0  0  0
  5  6  2  0  0  0  0
  5 11  1  0  0  0  0
  6 12  1  0  0  0  0
  7 13  1  0  0  0  0
M  END
