
  -HYPER- 03181400513D

 38 40  0  0  0  0  0  0  0  0999 V2000
    6.3705   -9.5697    0.0000 C   0  0  0  0  0  0  0  0  0  0  0  0
    6.3705  -10.8997    0.0000 C   0  0  0  0  0  0  0  0  0  0  0  0
    5.2186   -8.9047    0.0000 C   0  0  0  0  0  0  0  0  0  0  0  0
    5.2186  -11.5647    0.0000 C   0  0  0  0  0  0  0  0  0  0  0  0
    4.0668   -9.5697    0.0000 C   0  0  0  0  0  0  0  0  0  0  0  0
    4.0668  -10.8997    0.0000 C   0  0  0  0  0  0  0  0  0  0  0  0
    7.5223   -8.9047    0.0000 C   0  0  0  0  0  0  0  0  0  0  0  0
    8.6740   -9.5698    0.0000 C   0  0  0  0  0  0  0  0  0  0  0  0
    7.5222  -11.5646    0.0000 C   0  0  0  0  0  0  0  0  0  0  0  0
    8.6740  -10.8997    0.0000 C   0  0  0  0  0  0  0  0  0  0  0  0
    9.8257   -8.9050    0.0000 C   0  0  0  0  0  0  0  0  0  0  0  0
   10.9774   -9.5701    0.0000 C   0  0  0  0  0  0  0  0  0  0  0  0
    9.8256  -11.5647    0.0000 C   0  0  0  0  0  0  0  0  0  0  0  0
   10.9773  -10.8999    0.0000 C   0  0  0  0  0  0  0  0  0  0  0  0
    7.0499   -8.7174    0.0000 H   0  0  0  0  0  0  0  0  0  0  0  0
    6.4856  -11.9836    0.0000 H   0  0  0  0  0  0  0  0  0  0  0  0
    5.2186   -8.4597   -0.9950 H   0  0  0  0  0  0  0  0  0  0  0  0
    5.2186   -8.1780    0.8124 H   0  0  0  0  0  0  0  0  0  0  0  0
    5.2186  -12.0097    0.9950 H   0  0  0  0  0  0  0  0  0  0  0  0
    5.2186  -12.2914   -0.8124 H   0  0  0  0  0  0  0  0  0  0  0  0
    3.6814   -9.3472   -0.9950 H   0  0  0  0  0  0  0  0  0  0  0  0
    3.4375   -9.2064    0.8124 H   0  0  0  0  0  0  0  0  0  0  0  0
    3.6814  -11.1222    0.9950 H   0  0  0  0  0  0  0  0  0  0  0  0
    3.4375  -11.2630   -0.8124 H   0  0  0  0  0  0  0  0  0  0  0  0
    7.5223   -8.4596    0.9950 H   0  0  0  0  0  0  0  0  0  0  0  0
    7.5223   -8.1781   -0.8125 H   0  0  0  0  0  0  0  0  0  0  0  0
    7.6014   -9.7640    0.0000 H   0  0  0  0  0  0  0  0  0  0  0  0
    7.5222  -12.0095   -0.9951 H   0  0  0  0  0  0  0  0  0  0  0  0
    7.5222  -12.2913    0.8124 H   0  0  0  0  0  0  0  0  0  0  0  0
    9.7309  -10.6330    0.0000 H   0  0  0  0  0  0  0  0  0  0  0  0
    9.8257   -8.4600    0.9950 H   0  0  0  0  0  0  0  0  0  0  0  0
    9.8258   -8.1784   -0.8125 H   0  0  0  0  0  0  0  0  0  0  0  0
   11.3628   -9.3477    0.9950 H   0  0  0  0  0  0  0  0  0  0  0  0
   11.6068   -9.2068   -0.8124 H   0  0  0  0  0  0  0  0  0  0  0  0
    9.8256  -12.0097   -0.9950 H   0  0  0  0  0  0  0  0  0  0  0  0
    9.8255  -12.2914    0.8124 H   0  0  0  0  0  0  0  0  0  0  0  0
   11.3627  -11.1224    0.9950 H   0  0  0  0  0  0  0  0  0  0  0  0
   11.6066  -11.2633   -0.8125 H   0  0  0  0  0  0  0  0  0  0  0  0
  1  3  1  0  0  0  0
  1  7  1  0  0  0  0
  1  2  1  0  0  0  0
  1 15  1  0  0  0  0
  2  4  1  0  0  0  0
  2  9  1  0  0  0  0
  2 16  1  0  0  0  0
  3  5  1  0  0  0  0
  3 17  1  0  0  0  0
  3 18  1  0  0  0  0
  4  6  1  0  0  0  0
  4 19  1  0  0  0  0
  4 20  1  0  0  0  0
  5  6  1  0  0  0  0
  5 21  1  0  0  0  0
  5 22  1  0  0  0  0
  6 23  1  0  0  0  0
  6 24  1  0  0  0  0
  7  8  1  0  0  0  0
  7 25  1  0  0  0  0
  7 26  1  0  0  0  0
  8 11  1  0  0  0  0
  8 10  1  0  0  0  0
  8 27  1  0  0  0  0
  9 10  1  0  0  0  0
  9 28  1  0  0  0  0
  9 29  1  0  0  0  0
 10 13  1  0  0  0  0
 10 30  1  0  0  0  0
 11 12  1  0  0  0  0
 11 31  1  0  0  0  0
 11 32  1  0  0  0  0
 12 14  1  0  0  0  0
 12 33  1  0  0  0  0
 12 34  1  0  0  0  0
 13 14  1  0  0  0  0
 13 35  1  0  0  0  0
 13 36  1  0  0  0  0
 14 37  1  0  0  0  0
 14 38  1  0  0  0  0
M  END
