
  -HYPER- 03181401163D

 18 18  0  0  0  0  0  0  0  0999 V2000
    8.5492   -7.4417    0.0000 C   0  0  0  0  0  0  0  0  0  0  0  0
    8.5492   -8.7717    0.0000 C   0  0  0  0  0  0  0  0  0  0  0  0
    7.3973   -6.7767    0.0000 C   0  0  0  0  0  0  0  0  0  0  0  0
    7.3973   -9.4367    0.0000 C   0  0  0  0  0  0  0  0  0  0  0  0
    6.2455   -7.4417    0.0000 C   0  0  0  0  0  0  0  0  0  0  0  0
    6.2455   -8.7717    0.0000 C   0  0  0  0  0  0  0  0  0  0  0  0
    9.6267   -7.1693    0.0000 C   0  0  0  0  0  0  0  0  0  0  0  0
    9.2593   -9.0313    0.0000 C   0  0  0  0  0  0  0  0  0  0  0  0
    7.3973   -5.6967    0.0000 H   0  0  0  0  0  0  0  0  0  0  0  0
    7.3973  -10.5167    0.0000 H   0  0  0  0  0  0  0  0  0  0  0  0
    5.3102   -6.9017    0.0000 H   0  0  0  0  0  0  0  0  0  0  0  0
    5.3102   -9.3117    0.0000 H   0  0  0  0  0  0  0  0  0  0  0  0
   10.1049   -7.5784   -0.8900 H   0  0  0  0  0  0  0  0  0  0  0  0
   10.1049   -7.5784    0.8900 H   0  0  0  0  0  0  0  0  0  0  0  0
    9.7271   -6.0839   -0.0000 H   0  0  0  0  0  0  0  0  0  0  0  0
    9.7770   -8.6735    0.8900 H   0  0  0  0  0  0  0  0  0  0  0  0
    9.7770   -8.6735   -0.8900 H   0  0  0  0  0  0  0  0  0  0  0  0
    9.2477  -10.1212    0.0000 H   0  0  0  0  0  0  0  0  0  0  0  0
  1  2  1  0  0  0  0
  1  3  2  0  0  0  0
  1  7  1  0  0  0  0
  2  4  2  0  0  0  0
  2  8  1  0  0  0  0
  3  5  1  0  0  0  0
  3  9  1  0  0  0  0
  4  6  1  0  0  0  0
  4 10  1  0  0  0  0
  5  6  2  0  0  0  0
  5 11  1  0  0  0  0
  6 12  1  0  0  0  0
  7 13  1  0  0  0  0
  7 14  1  0  0  0  0
  7 15  1  0  0  0  0
  8 16  1  0  0  0  0
  8 17  1  0  0  0  0
  8 18  1  0  0  0  0
M  END
