
  -HYPER- 03181400513D

 25 26  0  0  0  0  0  0  0  0999 V2000
    6.3705   -9.5697    0.0000 C   0  0  0  0  0  0  0  0  0  0  0  0
    6.3705  -10.8997    0.0000 C   0  0  0  0  0  0  0  0  0  0  0  0
    5.2186   -8.9047    0.0000 C   0  0  0  0  0  0  0  0  0  0  0  0
    5.2186  -11.5647    0.0000 C   0  0  0  0  0  0  0  0  0  0  0  0
    4.0668   -9.5697    0.0000 C   0  0  0  0  0  0  0  0  0  0  0  0
    4.0668  -10.8997    0.0000 C   0  0  0  0  0  0  0  0  0  0  0  0
    7.6354   -9.1587    0.0000 C   0  0  0  0  0  0  0  0  0  0  0  0
    8.4171  -10.2347    0.0000 C   0  0  0  0  0  0  0  0  0  0  0  0
    7.6355  -11.3107    0.0000 C   0  0  0  0  0  0  0  0  0  0  0  0
    5.9273   -8.5739    0.0000 H   0  0  0  0  0  0  0  0  0  0  0  0
    5.9273  -11.8955    0.0000 H   0  0  0  0  0  0  0  0  0  0  0  0
    5.2186   -8.4597   -0.9950 H   0  0  0  0  0  0  0  0  0  0  0  0
    5.2186   -8.1780    0.8124 H   0  0  0  0  0  0  0  0  0  0  0  0
    5.2186  -12.0097    0.9950 H   0  0  0  0  0  0  0  0  0  0  0  0
    5.2186  -12.2914   -0.8124 H   0  0  0  0  0  0  0  0  0  0  0  0
    3.6814   -9.3472   -0.9950 H   0  0  0  0  0  0  0  0  0  0  0  0
    3.4375   -9.2064    0.8124 H   0  0  0  0  0  0  0  0  0  0  0  0
    3.6814  -11.1222    0.9950 H   0  0  0  0  0  0  0  0  0  0  0  0
    3.4375  -11.2630   -0.8124 H   0  0  0  0  0  0  0  0  0  0  0  0
    7.8356   -8.5427    0.8767 H   0  0  0  0  0  0  0  0  0  0  0  0
    7.8264   -8.5708   -0.8978 H   0  0  0  0  0  0  0  0  0  0  0  0
    9.0647  -10.2347    0.8768 H   0  0  0  0  0  0  0  0  0  0  0  0
    9.0353  -10.2347   -0.8977 H   0  0  0  0  0  0  0  0  0  0  0  0
    7.8357  -11.9267   -0.8767 H   0  0  0  0  0  0  0  0  0  0  0  0
    7.8265  -11.8985    0.8978 H   0  0  0  0  0  0  0  0  0  0  0  0
  1  3  1  0  0  0  0
  1  7  1  0  0  0  0
  1  2  1  0  0  0  0
  1 10  1  0  0  0  0
  2  4  1  0  0  0  0
  2  9  1  0  0  0  0
  2 11  1  0  0  0  0
  3  5  1  0  0  0  0
  3 12  1  0  0  0  0
  3 13  1  0  0  0  0
  4  6  1  0  0  0  0
  4 14  1  0  0  0  0
  4 15  1  0  0  0  0
  5  6  1  0  0  0  0
  5 16  1  0  0  0  0
  5 17  1  0  0  0  0
  6 18  1  0  0  0  0
  6 19  1  0  0  0  0
  7  8  1  0  0  0  0
  7 20  1  0  0  0  0
  7 21  1  0  0  0  0
  8  9  1  0  0  0  0
  8 22  1  0  0  0  0
  8 23  1  0  0  0  0
  9 24  1  0  0  0  0
  9 25  1  0  0  0  0
M  END
