
  -HYPER- 03181400513D

 32 34  0  0  0  0  0  0  0  0999 V2000
    5.9398   -9.6203    0.0000 C   0  0  0  0  0  0  0  0  0  0  0  0
    5.9398  -10.9503    0.0000 C   0  0  0  0  0  0  0  0  0  0  0  0
    4.7879   -8.9553    0.0000 C   0  0  0  0  0  0  0  0  0  0  0  0
    4.7879  -11.6153    0.0000 C   0  0  0  0  0  0  0  0  0  0  0  0
    3.6362   -9.6203    0.0000 C   0  0  0  0  0  0  0  0  0  0  0  0
    3.6362  -10.9503    0.0000 C   0  0  0  0  0  0  0  0  0  0  0  0
    7.0916   -8.9554    0.0000 C   0  0  0  0  0  0  0  0  0  0  0  0
    8.2434   -9.6205    0.0000 C   0  0  0  0  0  0  0  0  0  0  0  0
    7.0915  -11.6153    0.0000 C   0  0  0  0  0  0  0  0  0  0  0  0
    8.2433  -10.9504    0.0000 C   0  0  0  0  0  0  0  0  0  0  0  0
    4.7500  -12.6667    0.0000 C   0  0  0  0  0  0  0  0  0  0  0  0
    7.0427  -12.7047    0.0000 C   0  0  0  0  0  0  0  0  0  0  0  0
    5.7550   -8.5461    0.0000 H   0  0  0  0  0  0  0  0  0  0  0  0
    7.0000  -10.6970    0.0000 H   0  0  0  0  0  0  0  0  0  0  0  0
    4.7879   -8.5103   -0.9950 H   0  0  0  0  0  0  0  0  0  0  0  0
    4.7879   -8.2286    0.8125 H   0  0  0  0  0  0  0  0  0  0  0  0
    5.8777  -11.6352    0.0000 H   0  0  0  0  0  0  0  0  0  0  0  0
    3.2509   -9.3978   -0.9951 H   0  0  0  0  0  0  0  0  0  0  0  0
    3.0069   -9.2570    0.8124 H   0  0  0  0  0  0  0  0  0  0  0  0
    3.2509  -11.1728    0.9951 H   0  0  0  0  0  0  0  0  0  0  0  0
    3.0069  -11.3136   -0.8124 H   0  0  0  0  0  0  0  0  0  0  0  0
    7.0916   -8.5104    0.9950 H   0  0  0  0  0  0  0  0  0  0  0  0
    7.0916   -8.2287   -0.8125 H   0  0  0  0  0  0  0  0  0  0  0  0
    8.6288   -9.3980    0.9950 H   0  0  0  0  0  0  0  0  0  0  0  0
    8.8727   -9.2572   -0.8124 H   0  0  0  0  0  0  0  0  0  0  0  0
    8.1812  -11.6394    0.0000 H   0  0  0  0  0  0  0  0  0  0  0  0
    8.6286  -11.1729    0.9950 H   0  0  0  0  0  0  0  0  0  0  0  0
    8.8726  -11.3138   -0.8124 H   0  0  0  0  0  0  0  0  0  0  0  0
    4.1681  -13.2188   -0.7381 H   0  0  0  0  0  0  0  0  0  0  0  0
    4.3808  -13.0170    0.9639 H   0  0  0  0  0  0  0  0  0  0  0  0
    7.5817  -13.2778    0.7544 H   0  0  0  0  0  0  0  0  0  0  0  0
    7.3998  -13.0844   -0.9573 H   0  0  0  0  0  0  0  0  0  0  0  0
  1  3  1  0  0  0  0
  1  7  1  0  0  0  0
  1  2  1  0  0  0  0
  1 13  1  0  0  0  0
  2  4  1  0  0  0  0
  2  9  1  0  0  0  0
  2 14  1  0  0  0  0
  3  5  1  0  0  0  0
  3 15  1  0  0  0  0
  3 16  1  0  0  0  0
  4  6  1  0  0  0  0
  4 11  1  0  0  0  0
  4 17  1  0  0  0  0
  5  6  1  0  0  0  0
  5 18  1  0  0  0  0
  5 19  1  0  0  0  0
  6 20  1  0  0  0  0
  6 21  1  0  0  0  0
  7  8  1  0  0  0  0
  7 22  1  0  0  0  0
  7 23  1  0  0  0  0
  8 10  1  0  0  0  0
  8 24  1  0  0  0  0
  8 25  1  0  0  0  0
  9 10  1  0  0  0  0
  9 12  1  0  0  0  0
  9 26  1  0  0  0  0
 10 27  1  0  0  0  0
 10 28  1  0  0  0  0
 11 12  1  0  0  0  0
 11 29  1  0  0  0  0
 11 30  1  0  0  0  0
 12 31  1  0  0  0  0
 12 32  1  0  0  0  0
M  END
