
  -HYPER- 03181400513D

 45 48  0  0  0  0  0  0  0  0999 V2000
    5.9398   -9.6203    0.0000 C   0  0  0  0  0  0  0  0  0  0  0  0
    5.9398  -10.9503    0.0000 C   0  0  0  0  0  0  0  0  0  0  0  0
    4.7879   -8.9553    0.0000 C   0  0  0  0  0  0  0  0  0  0  0  0
    4.7879  -11.6153    0.0000 C   0  0  0  0  0  0  0  0  0  0  0  0
    3.6362   -9.6203    0.0000 C   0  0  0  0  0  0  0  0  0  0  0  0
    3.6362  -10.9503    0.0000 C   0  0  0  0  0  0  0  0  0  0  0  0
    7.0916   -8.9554    0.0000 C   0  0  0  0  0  0  0  0  0  0  0  0
    8.2434   -9.6205    0.0000 C   0  0  0  0  0  0  0  0  0  0  0  0
    7.0915  -11.6153    0.0000 C   0  0  0  0  0  0  0  0  0  0  0  0
    8.2433  -10.9504    0.0000 C   0  0  0  0  0  0  0  0  0  0  0  0
    7.3680  -12.9161    0.0000 C   0  0  0  0  0  0  0  0  0  0  0  0
    8.6906  -13.0552    0.0000 C   0  0  0  0  0  0  0  0  0  0  0  0
    9.2317  -11.8404    0.0000 C   0  0  0  0  0  0  0  0  0  0  0  0
    9.4721  -14.1311    0.0000 C   0  0  0  0  0  0  0  0  0  0  0  0
   10.7946  -13.9922    0.0000 C   0  0  0  0  0  0  0  0  0  0  0  0
   10.5541  -11.7016    0.0000 C   0  0  0  0  0  0  0  0  0  0  0  0
   11.3356  -12.7775    0.0000 C   0  0  0  0  0  0  0  0  0  0  0  0
    5.7550   -8.5461    0.0000 H   0  0  0  0  0  0  0  0  0  0  0  0
    7.0000  -10.6970    0.0000 H   0  0  0  0  0  0  0  0  0  0  0  0
    4.7879   -8.5103   -0.9950 H   0  0  0  0  0  0  0  0  0  0  0  0
    4.7879   -8.2286    0.8125 H   0  0  0  0  0  0  0  0  0  0  0  0
    4.7879  -12.0603    0.9950 H   0  0  0  0  0  0  0  0  0  0  0  0
    4.7879  -12.3420   -0.8125 H   0  0  0  0  0  0  0  0  0  0  0  0
    3.2509   -9.3978   -0.9951 H   0  0  0  0  0  0  0  0  0  0  0  0
    3.0069   -9.2570    0.8124 H   0  0  0  0  0  0  0  0  0  0  0  0
    3.2509  -11.1728    0.9951 H   0  0  0  0  0  0  0  0  0  0  0  0
    3.0069  -11.3136   -0.8124 H   0  0  0  0  0  0  0  0  0  0  0  0
    7.0916   -8.5104    0.9950 H   0  0  0  0  0  0  0  0  0  0  0  0
    7.0916   -8.2287   -0.8125 H   0  0  0  0  0  0  0  0  0  0  0  0
    8.6288   -9.3980    0.9950 H   0  0  0  0  0  0  0  0  0  0  0  0
    8.8727   -9.2572   -0.8124 H   0  0  0  0  0  0  0  0  0  0  0  0
    6.0075  -11.7291    0.0000 H   0  0  0  0  0  0  0  0  0  0  0  0
    8.8840  -10.0686    0.0000 H   0  0  0  0  0  0  0  0  0  0  0  0
    6.9346  -13.3974   -0.8767 H   0  0  0  0  0  0  0  0  0  0  0  0
    6.9544  -13.3755    0.8978 H   0  0  0  0  0  0  0  0  0  0  0  0
    8.6903  -14.1452    0.0000 H   0  0  0  0  0  0  0  0  0  0  0  0
   10.0419  -11.1112    0.0000 H   0  0  0  0  0  0  0  0  0  0  0  0
    9.2910  -14.5376   -0.9950 H   0  0  0  0  0  0  0  0  0  0  0  0
    9.1765  -14.7949    0.8125 H   0  0  0  0  0  0  0  0  0  0  0  0
   11.0561  -14.3522   -0.9951 H   0  0  0  0  0  0  0  0  0  0  0  0
   11.2217  -14.5802    0.8124 H   0  0  0  0  0  0  0  0  0  0  0  0
   10.7351  -11.2951    0.9950 H   0  0  0  0  0  0  0  0  0  0  0  0
   10.8498  -11.0378   -0.8124 H   0  0  0  0  0  0  0  0  0  0  0  0
   11.7782  -12.7310   -0.9950 H   0  0  0  0  0  0  0  0  0  0  0  0
   12.0583  -12.7016    0.8125 H   0  0  0  0  0  0  0  0  0  0  0  0
  1  3  1  0  0  0  0
  1  7  1  0  0  0  0
  1  2  1  0  0  0  0
  1 18  1  0  0  0  0
  2  4  1  0  0  0  0
  2  9  1  0  0  0  0
  2 19  1  0  0  0  0
  3  5  1  0  0  0  0
  3 20  1  0  0  0  0
  3 21  1  0  0  0  0
  4  6  1  0  0  0  0
  4 22  1  0  0  0  0
  4 23  1  0  0  0  0
  5  6  1  0  0  0  0
  5 24  1  0  0  0  0
  5 25  1  0  0  0  0
  6 26  1  0  0  0  0
  6 27  1  0  0  0  0
  7  8  1  0  0  0  0
  7 28  1  0  0  0  0
  7 29  1  0  0  0  0
  8 10  1  0  0  0  0
  8 30  1  0  0  0  0
  8 31  1  0  0  0  0
  9 11  1  0  0  0  0
  9 10  1  0  0  0  0
  9 32  1  0  0  0  0
 10 13  1  0  0  0  0
 10 33  1  0  0  0  0
 11 12  1  0  0  0  0
 11 34  1  0  0  0  0
 11 35  1  0  0  0  0
 12 14  1  0  0  0  0
 12 13  1  0  0  0  0
 12 36  1  0  0  0  0
 13 16  1  0  0  0  0
 13 37  1  0  0  0  0
 14 15  1  0  0  0  0
 14 38  1  0  0  0  0
 14 39  1  0  0  0  0
 15 17  1  0  0  0  0
 15 40  1  0  0  0  0
 15 41  1  0  0  0  0
 16 17  1  0  0  0  0
 16 42  1  0  0  0  0
 16 43  1  0  0  0  0
 17 44  1  0  0  0  0
 17 45  1  0  0  0  0
M  END
